*SPEF "IEEE 1481-1998"
*DESIGN "alu"
*DATE "Mon May 20 21:06:53 2019"
*VENDOR "Cadence Design Systems, Inc."
*PROGRAM "Innovus"
*VERSION "18.12-s106_1"
*DESIGN_FLOW "COUPLING C" "PIN_CAP NONE" "NAME_SCOPE LOCAL"
*DIVIDER /
*DELIMITER :
*BUS_DELIMITER []
*T_UNIT 1 NS
*C_UNIT 1 PF
*R_UNIT 1 OHM
*L_UNIT 1 HENRY

// MMMC spef file for corner 'default_rc_corner'

*NAME_MAP

*1 FE_DBTN2_n866
*2 FE_DBTN1_n699
*3 FE_DBTN0_n778
*4 rs1[31]
*5 rs1[30]
*6 rs1[29]
*7 rs1[28]
*8 rs1[27]
*9 rs1[26]
*10 rs1[25]
*11 rs1[24]
*12 rs1[23]
*13 rs1[22]
*14 rs1[21]
*15 rs1[20]
*16 rs1[19]
*17 rs1[18]
*18 rs1[17]
*19 rs1[16]
*20 rs1[15]
*21 rs1[14]
*22 rs1[13]
*23 rs1[12]
*24 rs1[11]
*25 rs1[10]
*26 rs1[9]
*27 rs1[8]
*28 rs1[7]
*29 rs1[6]
*30 rs1[5]
*31 rs1[4]
*32 rs1[3]
*33 rs1[2]
*34 rs1[1]
*35 rs1[0]
*36 rs2[31]
*37 rs2[30]
*38 rs2[29]
*39 rs2[28]
*40 rs2[27]
*41 rs2[26]
*42 rs2[25]
*43 rs2[24]
*44 rs2[23]
*45 rs2[22]
*46 rs2[21]
*47 rs2[20]
*48 rs2[19]
*49 rs2[18]
*50 rs2[17]
*51 rs2[16]
*52 rs2[15]
*53 rs2[14]
*54 rs2[13]
*55 rs2[12]
*56 rs2[11]
*57 rs2[10]
*58 rs2[9]
*59 rs2[8]
*60 rs2[7]
*61 rs2[6]
*62 rs2[5]
*63 rs2[4]
*64 rs2[3]
*65 rs2[2]
*66 rs2[1]
*67 rs2[0]
*68 mode[3]
*69 mode[2]
*70 mode[1]
*71 mode[0]
*72 rd[31]
*73 rd[30]
*74 rd[29]
*75 rd[28]
*76 rd[27]
*77 rd[26]
*78 rd[25]
*79 rd[24]
*80 rd[23]
*81 rd[22]
*82 rd[21]
*83 rd[20]
*84 rd[19]
*85 rd[18]
*86 rd[17]
*87 rd[16]
*88 rd[15]
*89 rd[14]
*90 rd[13]
*91 rd[12]
*92 rd[11]
*93 rd[10]
*94 rd[9]
*95 rd[8]
*96 rd[7]
*97 rd[6]
*98 rd[5]
*99 rd[4]
*100 rd[3]
*101 rd[2]
*102 rd[1]
*103 rd[0]
*104 clk
*105 reset
*106 slt_out\[0\]
*107 sltu_out\[0\]
*108 N50
*109 N51
*110 N52
*111 N53
*112 N54
*113 N55
*114 N56
*115 N57
*116 N58
*117 N59
*118 N60
*119 N61
*120 N62
*121 N63
*122 N64
*123 N65
*124 N66
*125 N67
*126 N68
*127 N69
*128 N70
*129 N71
*130 N72
*131 N73
*132 N74
*133 N75
*134 N76
*135 N77
*136 N78
*137 N79
*138 N80
*139 N81
*140 n4
*141 n5
*142 n6
*143 n7
*144 n8
*145 n9
*146 n10
*147 n11
*148 n12
*149 n13
*150 n14
*151 n15
*152 n16
*153 n17
*154 n18
*155 n19
*156 n20
*157 n21
*158 n22
*159 n23
*160 n24
*161 n25
*162 n26
*163 n27
*164 n28
*165 n29
*166 n30
*167 n31
*168 n32
*169 n33
*170 n34
*171 n35
*172 n36
*173 n37
*174 n38
*175 n39
*176 n40
*177 n41
*178 n42
*179 n43
*180 n44
*181 n45
*182 n46
*183 n47
*184 n48
*185 n49
*186 n50
*187 n51
*188 n52
*189 n53
*190 n54
*191 n55
*192 n56
*193 n57
*194 n58
*195 n59
*196 n60
*197 n61
*198 n62
*199 n63
*200 n64
*201 n65
*202 n66
*203 n67
*204 n68
*205 n69
*206 n70
*207 n71
*208 n72
*209 n73
*210 n74
*211 n75
*212 n76
*213 n77
*214 n78
*215 n79
*216 n80
*217 n81
*218 n82
*219 n83
*220 n84
*221 n85
*222 n86
*223 n87
*224 n88
*225 n89
*226 n90
*227 n91
*228 n92
*229 n93
*230 n94
*231 n95
*232 n96
*233 n97
*234 n98
*235 n99
*236 n100
*237 n101
*238 n102
*239 n103
*240 n104
*241 n105
*242 n106
*243 n107
*244 n108
*245 n109
*246 n110
*247 n111
*248 n112
*249 n113
*250 n114
*251 n115
*252 n116
*253 n117
*254 n118
*255 n119
*256 n120
*257 n121
*258 n122
*259 n123
*260 n124
*261 n125
*262 n126
*263 n127
*264 n128
*265 n129
*266 n130
*267 n131
*268 n132
*269 n133
*270 n134
*271 n135
*272 n136
*273 n137
*274 n138
*275 n139
*276 n140
*277 n141
*278 n142
*279 n143
*280 n144
*281 isll\/sll_30\/ML_int\[5\]\[0\]
*282 isll\/sll_30\/ML_int\[5\]\[1\]
*283 isll\/sll_30\/ML_int\[5\]\[2\]
*284 isll\/sll_30\/ML_int\[5\]\[3\]
*285 isll\/sll_30\/ML_int\[5\]\[4\]
*286 isll\/sll_30\/ML_int\[5\]\[5\]
*287 isll\/sll_30\/ML_int\[5\]\[6\]
*288 isll\/sll_30\/ML_int\[5\]\[7\]
*289 isll\/sll_30\/ML_int\[5\]\[8\]
*290 isll\/sll_30\/ML_int\[5\]\[9\]
*291 isll\/sll_30\/ML_int\[5\]\[10\]
*292 isll\/sll_30\/ML_int\[5\]\[11\]
*293 isll\/sll_30\/ML_int\[5\]\[12\]
*294 isll\/sll_30\/ML_int\[5\]\[13\]
*295 isll\/sll_30\/ML_int\[5\]\[14\]
*296 isll\/sll_30\/ML_int\[5\]\[15\]
*297 isll\/sll_30\/ML_int\[5\]\[16\]
*298 isll\/sll_30\/ML_int\[5\]\[17\]
*299 isll\/sll_30\/ML_int\[5\]\[18\]
*300 isll\/sll_30\/ML_int\[5\]\[19\]
*301 isll\/sll_30\/ML_int\[5\]\[20\]
*302 isll\/sll_30\/ML_int\[5\]\[21\]
*303 isll\/sll_30\/ML_int\[5\]\[22\]
*304 isll\/sll_30\/ML_int\[5\]\[23\]
*305 isll\/sll_30\/ML_int\[5\]\[24\]
*306 isll\/sll_30\/ML_int\[5\]\[25\]
*307 isll\/sll_30\/ML_int\[5\]\[26\]
*308 isll\/sll_30\/ML_int\[5\]\[27\]
*309 isll\/sll_30\/ML_int\[5\]\[28\]
*310 isll\/sll_30\/ML_int\[5\]\[29\]
*311 isll\/sll_30\/ML_int\[5\]\[30\]
*312 isll\/sll_30\/ML_int\[5\]\[31\]
*313 isll\/sll_30\/ML_int\[4\]\[8\]
*314 isll\/sll_30\/ML_int\[4\]\[9\]
*315 isll\/sll_30\/ML_int\[4\]\[10\]
*316 isll\/sll_30\/ML_int\[4\]\[11\]
*317 isll\/sll_30\/ML_int\[4\]\[12\]
*318 isll\/sll_30\/ML_int\[4\]\[13\]
*319 isll\/sll_30\/ML_int\[4\]\[14\]
*320 isll\/sll_30\/ML_int\[4\]\[15\]
*321 isll\/sll_30\/ML_int\[4\]\[24\]
*322 isll\/sll_30\/ML_int\[4\]\[25\]
*323 isll\/sll_30\/ML_int\[4\]\[26\]
*324 isll\/sll_30\/ML_int\[4\]\[27\]
*325 isll\/sll_30\/ML_int\[4\]\[28\]
*326 isll\/sll_30\/ML_int\[4\]\[29\]
*327 isll\/sll_30\/ML_int\[4\]\[30\]
*328 isll\/sll_30\/ML_int\[4\]\[31\]
*329 isll\/sll_30\/ML_int\[3\]\[0\]
*330 isll\/sll_30\/ML_int\[3\]\[1\]
*331 isll\/sll_30\/ML_int\[3\]\[2\]
*332 isll\/sll_30\/ML_int\[3\]\[3\]
*333 isll\/sll_30\/ML_int\[3\]\[4\]
*334 isll\/sll_30\/ML_int\[3\]\[5\]
*335 isll\/sll_30\/ML_int\[3\]\[6\]
*336 isll\/sll_30\/ML_int\[3\]\[7\]
*337 isll\/sll_30\/ML_int\[3\]\[8\]
*338 isll\/sll_30\/ML_int\[3\]\[9\]
*339 isll\/sll_30\/ML_int\[3\]\[10\]
*340 isll\/sll_30\/ML_int\[3\]\[11\]
*341 isll\/sll_30\/ML_int\[3\]\[12\]
*342 isll\/sll_30\/ML_int\[3\]\[13\]
*343 isll\/sll_30\/ML_int\[3\]\[14\]
*344 isll\/sll_30\/ML_int\[3\]\[15\]
*345 isll\/sll_30\/ML_int\[3\]\[16\]
*346 isll\/sll_30\/ML_int\[3\]\[17\]
*347 isll\/sll_30\/ML_int\[3\]\[18\]
*348 isll\/sll_30\/ML_int\[3\]\[19\]
*349 isll\/sll_30\/ML_int\[3\]\[20\]
*350 isll\/sll_30\/ML_int\[3\]\[21\]
*351 isll\/sll_30\/ML_int\[3\]\[22\]
*352 isll\/sll_30\/ML_int\[3\]\[23\]
*353 isll\/sll_30\/ML_int\[3\]\[24\]
*354 isll\/sll_30\/ML_int\[3\]\[25\]
*355 isll\/sll_30\/ML_int\[3\]\[26\]
*356 isll\/sll_30\/ML_int\[3\]\[27\]
*357 isll\/sll_30\/ML_int\[3\]\[28\]
*358 isll\/sll_30\/ML_int\[3\]\[29\]
*359 isll\/sll_30\/ML_int\[3\]\[30\]
*360 isll\/sll_30\/ML_int\[3\]\[31\]
*361 isll\/sll_30\/ML_int\[2\]\[0\]
*362 isll\/sll_30\/ML_int\[2\]\[1\]
*363 isll\/sll_30\/ML_int\[2\]\[2\]
*364 isll\/sll_30\/ML_int\[2\]\[3\]
*365 isll\/sll_30\/ML_int\[2\]\[4\]
*366 isll\/sll_30\/ML_int\[2\]\[5\]
*367 isll\/sll_30\/ML_int\[2\]\[6\]
*368 isll\/sll_30\/ML_int\[2\]\[7\]
*369 isll\/sll_30\/ML_int\[2\]\[8\]
*370 isll\/sll_30\/ML_int\[2\]\[9\]
*371 isll\/sll_30\/ML_int\[2\]\[10\]
*372 isll\/sll_30\/ML_int\[2\]\[11\]
*373 isll\/sll_30\/ML_int\[2\]\[12\]
*374 isll\/sll_30\/ML_int\[2\]\[13\]
*375 isll\/sll_30\/ML_int\[2\]\[14\]
*376 isll\/sll_30\/ML_int\[2\]\[15\]
*377 isll\/sll_30\/ML_int\[2\]\[16\]
*378 isll\/sll_30\/ML_int\[2\]\[17\]
*379 isll\/sll_30\/ML_int\[2\]\[18\]
*380 isll\/sll_30\/ML_int\[2\]\[19\]
*381 isll\/sll_30\/ML_int\[2\]\[20\]
*382 isll\/sll_30\/ML_int\[2\]\[21\]
*383 isll\/sll_30\/ML_int\[2\]\[22\]
*384 isll\/sll_30\/ML_int\[2\]\[23\]
*385 isll\/sll_30\/ML_int\[2\]\[24\]
*386 isll\/sll_30\/ML_int\[2\]\[25\]
*387 isll\/sll_30\/ML_int\[2\]\[26\]
*388 isll\/sll_30\/ML_int\[2\]\[27\]
*389 isll\/sll_30\/ML_int\[2\]\[28\]
*390 isll\/sll_30\/ML_int\[2\]\[29\]
*391 isll\/sll_30\/ML_int\[2\]\[30\]
*392 isll\/sll_30\/ML_int\[2\]\[31\]
*393 isll\/sll_30\/ML_int\[1\]\[0\]
*394 isll\/sll_30\/ML_int\[1\]\[1\]
*395 isll\/sll_30\/ML_int\[1\]\[2\]
*396 isll\/sll_30\/ML_int\[1\]\[3\]
*397 isll\/sll_30\/ML_int\[1\]\[4\]
*398 isll\/sll_30\/ML_int\[1\]\[5\]
*399 isll\/sll_30\/ML_int\[1\]\[6\]
*400 isll\/sll_30\/ML_int\[1\]\[7\]
*401 isll\/sll_30\/ML_int\[1\]\[8\]
*402 isll\/sll_30\/ML_int\[1\]\[9\]
*403 isll\/sll_30\/ML_int\[1\]\[10\]
*404 isll\/sll_30\/ML_int\[1\]\[11\]
*405 isll\/sll_30\/ML_int\[1\]\[12\]
*406 isll\/sll_30\/ML_int\[1\]\[13\]
*407 isll\/sll_30\/ML_int\[1\]\[14\]
*408 isll\/sll_30\/ML_int\[1\]\[15\]
*409 isll\/sll_30\/ML_int\[1\]\[16\]
*410 isll\/sll_30\/ML_int\[1\]\[17\]
*411 isll\/sll_30\/ML_int\[1\]\[18\]
*412 isll\/sll_30\/ML_int\[1\]\[19\]
*413 isll\/sll_30\/ML_int\[1\]\[20\]
*414 isll\/sll_30\/ML_int\[1\]\[21\]
*415 isll\/sll_30\/ML_int\[1\]\[22\]
*416 isll\/sll_30\/ML_int\[1\]\[23\]
*417 isll\/sll_30\/ML_int\[1\]\[24\]
*418 isll\/sll_30\/ML_int\[1\]\[25\]
*419 isll\/sll_30\/ML_int\[1\]\[26\]
*420 isll\/sll_30\/ML_int\[1\]\[27\]
*421 isll\/sll_30\/ML_int\[1\]\[28\]
*422 isll\/sll_30\/ML_int\[1\]\[29\]
*423 isll\/sll_30\/ML_int\[1\]\[30\]
*424 isll\/sll_30\/ML_int\[1\]\[31\]
*425 n145
*426 n148
*427 n149
*428 n150
*429 n152
*430 n153
*431 n157
*432 n161
*433 n168
*434 n170
*435 n176
*436 n214
*437 n215
*438 n216
*439 n217
*440 n218
*441 n219
*442 n220
*443 n221
*444 n222
*445 n223
*446 n262
*447 n265
*448 n266
*449 n267
*450 n296
*451 n434
*452 n445
*453 n457
*454 n474
*455 n504
*456 n505
*457 n506
*458 n507
*459 n508
*460 n509
*461 n510
*462 n511
*463 n512
*464 n513
*465 n514
*466 n515
*467 n516
*468 n517
*469 n518
*470 n519
*471 n520
*472 n521
*473 n522
*474 n523
*475 n524
*476 n525
*477 n526
*478 n527
*479 n528
*480 n529
*481 n530
*482 n531
*483 n532
*484 n533
*485 n534
*486 n535
*487 n536
*488 n537
*489 n538
*490 n539
*491 n540
*492 n541
*493 n542
*494 n543
*495 n544
*496 n545
*497 n546
*498 n547
*499 n548
*500 n549
*501 n550
*502 n551
*503 n552
*504 n553
*505 n556
*506 n558
*507 n559
*508 n560
*509 n561
*510 n562
*511 n563
*512 n564
*513 n565
*514 n566
*515 n567
*516 n568
*517 n569
*518 n570
*519 n571
*520 n572
*521 n573
*522 n574
*523 n575
*524 n576
*525 n577
*526 n578
*527 n579
*528 n580
*529 n581
*530 n582
*531 n583
*532 n584
*533 n585
*534 n586
*535 n588
*536 n590
*537 n591
*538 n592
*539 n593
*540 n594
*541 n595
*542 n596
*543 n597
*544 n598
*545 n599
*546 n600
*547 n601
*548 n602
*549 n603
*550 n604
*551 n605
*552 n606
*553 n607
*554 n608
*555 n609
*556 n610
*557 n611
*558 n612
*559 n613
*560 n614
*561 n615
*562 n616
*563 n617
*564 n618
*565 n619
*566 n620
*567 n621
*568 n622
*569 n623
*570 n624
*571 n625
*572 n626
*573 n627
*574 n628
*575 n629
*576 n630
*577 n631
*578 n632
*579 n633
*580 n634
*581 n635
*582 n636
*583 n637
*584 n638
*585 n639
*586 n640
*587 n641
*588 n642
*589 n643
*590 n644
*591 n645
*592 n646
*593 n647
*594 n648
*595 n649
*596 n650
*597 n651
*598 n652
*599 n653
*600 n654
*601 n655
*602 n656
*603 n657
*604 n658
*605 n659
*606 n660
*607 n661
*608 n662
*609 n663
*610 n664
*611 n665
*612 n666
*613 n667
*614 n668
*615 n669
*616 n670
*617 n671
*618 n672
*619 n673
*620 n674
*621 n675
*622 n676
*623 n677
*624 n678
*625 n679
*626 n680
*627 n681
*628 n682
*629 n683
*630 n684
*631 n685
*632 n686
*633 n687
*634 n688
*635 n689
*636 n690
*637 n691
*638 n692
*639 n693
*640 n694
*641 n695
*642 n696
*643 n697
*644 n698
*645 n699
*646 n700
*647 n701
*648 n702
*649 n703
*650 n704
*651 n705
*652 n706
*653 n707
*654 n708
*655 n709
*656 n710
*657 n711
*658 n712
*659 n713
*660 n714
*661 n715
*662 n716
*663 n717
*664 n718
*665 n719
*666 n720
*667 n721
*668 n722
*669 n723
*670 n724
*671 n725
*672 n726
*673 n727
*674 n728
*675 n729
*676 n730
*677 n731
*678 n732
*679 n733
*680 n734
*681 n735
*682 n736
*683 n737
*684 n738
*685 n739
*686 n740
*687 n741
*688 n742
*689 n743
*690 n744
*691 n745
*692 n746
*693 n747
*694 n748
*695 n749
*696 n750
*697 n751
*698 n752
*699 n753
*700 n754
*701 n755
*702 n756
*703 n757
*704 n758
*705 n759
*706 n760
*707 n761
*708 n762
*709 n763
*710 n764
*711 n765
*712 n766
*713 n767
*714 n768
*715 n769
*716 n770
*717 n771
*718 n772
*719 n773
*720 n774
*721 n775
*722 n776
*723 n777
*724 n778
*725 n779
*726 n780
*727 n781
*728 n782
*729 n783
*730 n784
*731 n785
*732 n786
*733 n787
*734 n788
*735 n789
*736 n790
*737 n791
*738 n792
*739 n793
*740 n794
*741 n795
*742 n796
*743 n797
*744 n798
*745 n799
*746 n800
*747 n801
*748 n802
*749 n803
*750 n804
*751 n805
*752 n806
*753 n807
*754 n808
*755 n809
*756 n810
*757 n811
*758 n812
*759 n813
*760 n814
*761 n815
*762 n816
*763 n817
*764 n818
*765 n819
*766 n820
*767 n821
*768 n822
*769 n823
*770 n824
*771 n825
*772 n826
*773 n827
*774 n828
*775 n829
*776 n830
*777 n831
*778 n832
*779 n833
*780 n834
*781 n835
*782 n836
*783 n837
*784 n838
*785 n839
*786 n840
*787 n841
*788 n842
*789 n843
*790 n844
*791 n845
*792 n846
*793 n847
*794 n848
*795 n849
*796 n850
*797 n851
*798 n852
*799 n853
*800 n854
*801 n855
*802 n856
*803 n857
*804 n858
*805 n859
*806 n860
*807 n861
*808 n862
*809 n863
*810 n864
*811 n865
*812 n866
*813 n867
*814 n868
*815 n869
*816 n870
*817 n871
*818 n872
*819 n873
*820 n874
*821 n875
*822 n876
*823 n877
*824 n878
*825 n879
*826 n880
*827 n881
*828 n882
*829 n883
*830 n884
*831 n885
*832 n886
*833 n887
*834 n888
*835 n889
*836 n890
*837 n891
*838 n892
*839 n893
*840 n894
*841 n895
*842 n896
*843 add_out[31]
*844 add_out[30]
*845 add_out[29]
*846 add_out[28]
*847 add_out[27]
*848 add_out[26]
*849 add_out[25]
*850 add_out[24]
*851 add_out[23]
*852 add_out[22]
*853 add_out[21]
*854 add_out[20]
*855 add_out[19]
*856 add_out[18]
*857 add_out[17]
*858 add_out[16]
*859 add_out[15]
*860 add_out[14]
*861 add_out[13]
*862 add_out[12]
*863 add_out[11]
*864 add_out[10]
*865 add_out[9]
*866 add_out[8]
*867 add_out[7]
*868 add_out[6]
*869 add_out[5]
*870 add_out[4]
*871 add_out[3]
*872 add_out[2]
*873 add_out[1]
*874 add_out[0]
*875 sub_out[31]
*876 sub_out[30]
*877 sub_out[29]
*878 sub_out[28]
*879 sub_out[27]
*880 sub_out[26]
*881 sub_out[25]
*882 sub_out[24]
*883 sub_out[23]
*884 sub_out[22]
*885 sub_out[21]
*886 sub_out[20]
*887 sub_out[19]
*888 sub_out[18]
*889 sub_out[17]
*890 sub_out[16]
*891 sub_out[15]
*892 sub_out[14]
*893 sub_out[13]
*894 sub_out[12]
*895 sub_out[11]
*896 sub_out[10]
*897 sub_out[9]
*898 sub_out[8]
*899 sub_out[7]
*900 sub_out[6]
*901 sub_out[5]
*902 sub_out[4]
*903 sub_out[3]
*904 sub_out[2]
*905 sub_out[1]
*906 sub_out[0]
*907 xor_out[31]
*908 xor_out[30]
*909 xor_out[29]
*910 xor_out[28]
*911 xor_out[27]
*912 xor_out[26]
*913 xor_out[25]
*914 xor_out[24]
*915 xor_out[23]
*916 xor_out[22]
*917 xor_out[21]
*918 xor_out[20]
*919 xor_out[19]
*920 xor_out[18]
*921 xor_out[17]
*922 xor_out[16]
*923 xor_out[15]
*924 xor_out[14]
*925 xor_out[13]
*926 xor_out[12]
*927 xor_out[11]
*928 xor_out[10]
*929 xor_out[9]
*930 xor_out[8]
*931 xor_out[7]
*932 xor_out[6]
*933 xor_out[5]
*934 xor_out[4]
*935 xor_out[3]
*936 xor_out[2]
*937 xor_out[1]
*938 srl_out[31]
*939 srl_out[30]
*940 srl_out[29]
*941 srl_out[28]
*942 srl_out[27]
*943 srl_out[26]
*944 srl_out[25]
*945 srl_out[24]
*946 srl_out[23]
*947 srl_out[22]
*948 srl_out[21]
*949 srl_out[20]
*950 srl_out[19]
*951 srl_out[18]
*952 srl_out[17]
*953 srl_out[16]
*954 srl_out[15]
*955 srl_out[11]
*956 srl_out[10]
*957 srl_out[9]
*958 srl_out[8]
*959 srl_out[7]
*960 srl_out[6]
*961 srl_out[5]
*962 srl_out[4]
*963 srl_out[3]
*964 srl_out[2]
*965 srl_out[1]
*966 srl_out[0]
*967 sra_out[30]
*968 sra_out[29]
*969 sra_out[28]
*970 sra_out[27]
*971 sra_out[26]
*972 sra_out[25]
*973 sra_out[24]
*974 sra_out[23]
*975 sra_out[22]
*976 sra_out[21]
*977 sra_out[20]
*978 sra_out[19]
*979 sra_out[18]
*980 sra_out[17]
*981 sra_out[16]
*982 sra_out[15]
*983 sra_out[14]
*984 sra_out[13]
*985 sra_out[12]
*986 sra_out[11]
*987 sra_out[10]
*988 sra_out[9]
*989 sra_out[8]
*990 sra_out[7]
*991 sra_out[6]
*992 sra_out[5]
*993 sra_out[4]
*994 sra_out[3]
*995 sra_out[2]
*996 sra_out[1]
*997 sra_out[0]
*998 or_out[31]
*999 or_out[30]
*1000 or_out[29]
*1001 or_out[28]
*1002 or_out[27]
*1003 or_out[26]
*1004 or_out[25]
*1005 or_out[24]
*1006 or_out[23]
*1007 or_out[22]
*1008 or_out[21]
*1009 or_out[20]
*1010 or_out[19]
*1011 or_out[18]
*1012 or_out[17]
*1013 or_out[16]
*1014 or_out[15]
*1015 or_out[14]
*1016 or_out[13]
*1017 or_out[12]
*1018 or_out[11]
*1019 or_out[10]
*1020 or_out[9]
*1021 or_out[8]
*1022 or_out[7]
*1023 or_out[6]
*1024 or_out[5]
*1025 or_out[4]
*1026 or_out[3]
*1027 or_out[2]
*1028 or_out[1]
*1029 or_out[0]
*1030 and_out[31]
*1031 and_out[30]
*1032 and_out[29]
*1033 and_out[28]
*1034 and_out[27]
*1035 and_out[26]
*1036 and_out[25]
*1037 and_out[24]
*1038 and_out[23]
*1039 and_out[22]
*1040 and_out[21]
*1041 and_out[20]
*1042 and_out[19]
*1043 and_out[18]
*1044 and_out[17]
*1045 and_out[16]
*1046 and_out[15]
*1047 and_out[14]
*1048 and_out[13]
*1049 and_out[12]
*1050 and_out[11]
*1051 and_out[10]
*1052 and_out[9]
*1053 and_out[8]
*1054 and_out[7]
*1055 and_out[6]
*1056 and_out[5]
*1057 and_out[4]
*1058 and_out[3]
*1059 and_out[2]
*1060 and_out[1]
*1061 and_out[0]
*1062 isub\/sub_18\/carry[31]
*1063 isub\/sub_18\/carry[30]
*1064 isub\/sub_18\/carry[29]
*1065 isub\/sub_18\/carry[28]
*1066 isub\/sub_18\/carry[27]
*1067 isub\/sub_18\/carry[26]
*1068 isub\/sub_18\/carry[25]
*1069 isub\/sub_18\/carry[24]
*1070 isub\/sub_18\/carry[23]
*1071 isub\/sub_18\/carry[22]
*1072 isub\/sub_18\/carry[21]
*1073 isub\/sub_18\/carry[20]
*1074 isub\/sub_18\/carry[19]
*1075 isub\/sub_18\/carry[18]
*1076 isub\/sub_18\/carry[17]
*1077 isub\/sub_18\/carry[16]
*1078 isub\/sub_18\/carry[15]
*1079 isub\/sub_18\/carry[14]
*1080 isub\/sub_18\/carry[13]
*1081 isub\/sub_18\/carry[12]
*1082 isub\/sub_18\/carry[11]
*1083 isub\/sub_18\/carry[10]
*1084 isub\/sub_18\/carry[9]
*1085 isub\/sub_18\/carry[8]
*1086 isub\/sub_18\/carry[7]
*1087 isub\/sub_18\/carry[6]
*1088 isub\/sub_18\/carry[5]
*1089 isub\/sub_18\/carry[4]
*1090 isub\/sub_18\/carry[3]
*1091 isub\/sub_18\/carry[2]
*1092 iadd\/add_9\/carry[31]
*1093 iadd\/add_9\/carry[30]
*1094 iadd\/add_9\/carry[29]
*1095 iadd\/add_9\/carry[28]
*1096 iadd\/add_9\/carry[27]
*1097 iadd\/add_9\/carry[26]
*1098 iadd\/add_9\/carry[25]
*1099 iadd\/add_9\/carry[24]
*1100 iadd\/add_9\/carry[23]
*1101 iadd\/add_9\/carry[22]
*1102 iadd\/add_9\/carry[21]
*1103 iadd\/add_9\/carry[20]
*1104 iadd\/add_9\/carry[19]
*1105 iadd\/add_9\/carry[18]
*1106 iadd\/add_9\/carry[17]
*1107 iadd\/add_9\/carry[16]
*1108 iadd\/add_9\/carry[15]
*1109 iadd\/add_9\/carry[14]
*1110 iadd\/add_9\/carry[13]
*1111 iadd\/add_9\/carry[12]
*1112 iadd\/add_9\/carry[11]
*1113 iadd\/add_9\/carry[10]
*1114 iadd\/add_9\/carry[9]
*1115 iadd\/add_9\/carry[8]
*1116 iadd\/add_9\/carry[7]
*1117 iadd\/add_9\/carry[6]
*1118 iadd\/add_9\/carry[5]
*1119 iadd\/add_9\/carry[4]
*1120 iadd\/add_9\/carry[3]
*1121 iadd\/add_9\/carry[2]
*1122 iadd\/add_9\/carry[1]
*1123 FE_DBTC2_n866
*1124 FE_DBTC1_n699
*1125 FE_DBTC0_n778
*1126 isll\/sll_30\/M1_0_31
*1127 isll\/sll_30\/M1_0_30
*1128 isll\/sll_30\/M1_0_1
*1129 isll\/sll_30\/M1_0_29
*1130 isll\/sll_30\/M1_0_28
*1131 isll\/sll_30\/M1_0_27
*1132 isll\/sll_30\/M1_0_25
*1133 isll\/sll_30\/M1_0_23
*1134 isll\/sll_30\/M1_0_21
*1135 isll\/sll_30\/M1_0_19
*1136 isll\/sll_30\/M1_0_17
*1137 isll\/sll_30\/M1_0_15
*1138 isll\/sll_30\/M1_0_13
*1139 isll\/sll_30\/M1_0_11
*1140 isll\/sll_30\/M1_0_9
*1141 isll\/sll_30\/M1_0_7
*1142 isll\/sll_30\/M1_0_5
*1143 isll\/sll_30\/M1_0_3
*1144 isll\/sll_30\/M1_0_26
*1145 isll\/sll_30\/M1_0_24
*1146 isll\/sll_30\/M1_0_22
*1147 isll\/sll_30\/M1_0_20
*1148 isll\/sll_30\/M1_0_18
*1149 isll\/sll_30\/M1_0_16
*1150 isll\/sll_30\/M1_0_14
*1151 isll\/sll_30\/M1_0_12
*1152 isll\/sll_30\/M1_0_10
*1153 isll\/sll_30\/M1_0_8
*1154 isll\/sll_30\/M1_0_2
*1155 isll\/sll_30\/M1_0_6
*1156 isll\/sll_30\/M1_0_4
*1157 iadd\/add_9\/U1_1
*1158 iadd\/add_9\/U1_4
*1159 iadd\/add_9\/U1_2
*1160 iadd\/add_9\/U1_3
*1161 iadd\/add_9\/U1_7
*1162 iadd\/add_9\/U1_6
*1163 iadd\/add_9\/U1_5
*1164 iadd\/add_9\/U1_29
*1165 iadd\/add_9\/U1_28
*1166 iadd\/add_9\/U1_27
*1167 iadd\/add_9\/U1_26
*1168 iadd\/add_9\/U1_25
*1169 iadd\/add_9\/U1_24
*1170 iadd\/add_9\/U1_23
*1171 iadd\/add_9\/U1_22
*1172 iadd\/add_9\/U1_21
*1173 iadd\/add_9\/U1_20
*1174 iadd\/add_9\/U1_19
*1175 iadd\/add_9\/U1_18
*1176 iadd\/add_9\/U1_17
*1177 iadd\/add_9\/U1_16
*1178 iadd\/add_9\/U1_15
*1179 iadd\/add_9\/U1_14
*1180 iadd\/add_9\/U1_13
*1181 iadd\/add_9\/U1_12
*1182 iadd\/add_9\/U1_11
*1183 iadd\/add_9\/U1_10
*1184 iadd\/add_9\/U1_9
*1185 iadd\/add_9\/U1_8
*1186 iadd\/add_9\/U1_30
*1187 isub\/sub_18\/U2_1
*1188 isub\/sub_18\/U2_4
*1189 isub\/sub_18\/U2_3
*1190 isub\/sub_18\/U2_2
*1191 isub\/sub_18\/U2_30
*1192 isub\/sub_18\/U2_7
*1193 isub\/sub_18\/U2_6
*1194 isub\/sub_18\/U2_5
*1195 isub\/sub_18\/U2_29
*1196 isub\/sub_18\/U2_28
*1197 isub\/sub_18\/U2_27
*1198 isub\/sub_18\/U2_26
*1199 isub\/sub_18\/U2_25
*1200 isub\/sub_18\/U2_24
*1201 isub\/sub_18\/U2_23
*1202 isub\/sub_18\/U2_22
*1203 isub\/sub_18\/U2_21
*1204 isub\/sub_18\/U2_20
*1205 isub\/sub_18\/U2_19
*1206 isub\/sub_18\/U2_18
*1207 isub\/sub_18\/U2_17
*1208 isub\/sub_18\/U2_16
*1209 isub\/sub_18\/U2_15
*1210 isub\/sub_18\/U2_14
*1211 isub\/sub_18\/U2_13
*1212 isub\/sub_18\/U2_12
*1213 isub\/sub_18\/U2_11
*1214 isub\/sub_18\/U2_10
*1215 isub\/sub_18\/U2_9
*1216 isub\/sub_18\/U2_8
*1217 isub\/sub_18\/U2_31
*1218 iadd\/add_9\/U1_31
*1219 rd_reg\[31\]
*1220 rd_reg\[30\]
*1221 rd_reg\[29\]
*1222 rd_reg\[28\]
*1223 isll\/sll_30\/M1_1_3
*1224 isll\/sll_30\/M1_1_2
*1225 isll\/sll_30\/M1_1_27
*1226 isll\/sll_30\/M1_1_26
*1227 isll\/sll_30\/M1_1_25
*1228 isll\/sll_30\/M1_1_24
*1229 isll\/sll_30\/M1_1_23
*1230 isll\/sll_30\/M1_1_19
*1231 isll\/sll_30\/M1_1_15
*1232 isll\/sll_30\/M1_1_11
*1233 isll\/sll_30\/M1_1_7
*1234 isll\/sll_30\/M1_1_22
*1235 isll\/sll_30\/M1_1_18
*1236 isll\/sll_30\/M1_1_14
*1237 isll\/sll_30\/M1_1_10
*1238 isll\/sll_30\/M1_1_6
*1239 isll\/sll_30\/M1_1_21
*1240 isll\/sll_30\/M1_1_17
*1241 isll\/sll_30\/M1_1_13
*1242 isll\/sll_30\/M1_1_9
*1243 isll\/sll_30\/M1_1_5
*1244 isll\/sll_30\/M1_1_20
*1245 isll\/sll_30\/M1_1_16
*1246 isll\/sll_30\/M1_1_12
*1247 isll\/sll_30\/M1_1_8
*1248 isll\/sll_30\/M1_1_4
*1249 isll\/sll_30\/M1_1_31
*1250 isll\/sll_30\/M1_2_31
*1251 isll\/sll_30\/M1_3_31
*1252 isll\/sll_30\/M1_4_31
*1253 isll\/sll_30\/M1_1_30
*1254 isll\/sll_30\/M1_2_30
*1255 isll\/sll_30\/M1_3_30
*1256 isll\/sll_30\/M1_4_30
*1257 isll\/sll_30\/M1_1_29
*1258 isll\/sll_30\/M1_2_29
*1259 isll\/sll_30\/M1_3_29
*1260 isll\/sll_30\/M1_4_29
*1261 isll\/sll_30\/M1_1_28
*1262 isll\/sll_30\/M1_2_28
*1263 isll\/sll_30\/M1_3_28
*1264 isll\/sll_30\/M1_4_28
*1265 rd_reg\[27\]
*1266 rd_reg\[26\]
*1267 rd_reg\[25\]
*1268 rd_reg\[24\]
*1269 rd_reg\[23\]
*1270 rd_reg\[22\]
*1271 rd_reg\[21\]
*1272 rd_reg\[20\]
*1273 rd_reg\[19\]
*1274 rd_reg\[18\]
*1275 rd_reg\[17\]
*1276 rd_reg\[16\]
*1277 rd_reg\[15\]
*1278 rd_reg\[14\]
*1279 rd_reg\[13\]
*1280 rd_reg\[12\]
*1281 rd_reg\[11\]
*1282 rd_reg\[10\]
*1283 rd_reg\[9\]
*1284 rd_reg\[8\]
*1285 rd_reg\[7\]
*1286 rd_reg\[6\]
*1287 rd_reg\[5\]
*1288 rd_reg\[4\]
*1289 rd_reg\[3\]
*1290 rd_reg\[2\]
*1291 rd_reg\[1\]
*1292 rd_reg\[0\]
*1293 isll\/sll_30\/M1_2_23
*1294 isll\/sll_30\/M1_2_15
*1295 isll\/sll_30\/M1_2_22
*1296 isll\/sll_30\/M1_2_14
*1297 isll\/sll_30\/M1_2_21
*1298 isll\/sll_30\/M1_2_13
*1299 isll\/sll_30\/M1_2_20
*1300 isll\/sll_30\/M1_2_12
*1301 isll\/sll_30\/M1_2_19
*1302 isll\/sll_30\/M1_2_11
*1303 isll\/sll_30\/M1_2_18
*1304 isll\/sll_30\/M1_2_10
*1305 isll\/sll_30\/M1_2_17
*1306 isll\/sll_30\/M1_2_9
*1307 isll\/sll_30\/M1_2_16
*1308 isll\/sll_30\/M1_2_8
*1309 isll\/sll_30\/M1_3_9
*1310 isll\/sll_30\/M1_2_27
*1311 isll\/sll_30\/M1_3_27
*1312 isll\/sll_30\/M1_4_27
*1313 isll\/sll_30\/M1_2_26
*1314 isll\/sll_30\/M1_3_26
*1315 isll\/sll_30\/M1_4_26
*1316 isll\/sll_30\/M1_2_25
*1317 isll\/sll_30\/M1_3_25
*1318 isll\/sll_30\/M1_4_25
*1319 isll\/sll_30\/M1_2_24
*1320 isll\/sll_30\/M1_3_24
*1321 isll\/sll_30\/M1_4_24
*1322 isll\/sll_30\/M1_2_7
*1323 isll\/sll_30\/M1_2_6
*1324 isll\/sll_30\/M1_2_5
*1325 isll\/sll_30\/M1_2_4
*1326 isll\/sll_30\/M1_3_15
*1327 isll\/sll_30\/M1_3_14
*1328 isll\/sll_30\/M1_3_13
*1329 isll\/sll_30\/M1_3_12
*1330 isll\/sll_30\/M1_3_11
*1331 isll\/sll_30\/M1_3_10
*1332 isll\/sll_30\/M1_3_8
*1333 U179
*1334 U182
*1335 U183
*1336 U184
*1337 U186
*1338 U187
*1339 U191
*1340 U195
*1341 U202
*1342 U204
*1343 U209
*1344 U212
*1345 U219
*1346 U228
*1347 U244
*1348 U246
*1349 U249
*1350 U252
*1351 U259
*1352 U260
*1353 U261
*1354 U262
*1355 U263
*1356 U267
*1357 U268
*1358 U269
*1359 U270
*1360 U271
*1361 U272
*1362 U273
*1363 U274
*1364 U275
*1365 U276
*1366 U277
*1367 U278
*1368 U279
*1369 U280
*1370 U281
*1371 U282
*1372 U283
*1373 U284
*1374 U285
*1375 U286
*1376 U287
*1377 U288
*1378 U289
*1379 U290
*1380 U291
*1381 U292
*1382 U293
*1383 U294
*1384 U295
*1385 U296
*1386 U297
*1387 U298
*1388 U299
*1389 U318
*1390 U321
*1391 U322
*1392 U343
*1393 U345
*1394 U346
*1395 U347
*1396 U348
*1397 U349
*1398 U350
*1399 U351
*1400 U352
*1401 U353
*1402 U359
*1403 U360
*1404 U361
*1405 U362
*1406 U363
*1407 U364
*1408 U365
*1409 U366
*1410 U367
*1411 U368
*1412 U369
*1413 U370
*1414 U371
*1415 U372
*1416 U373
*1417 U374
*1418 U375
*1419 U376
*1420 U377
*1421 U378
*1422 U379
*1423 U380
*1424 U381
*1425 U382
*1426 U383
*1427 U384
*1428 U385
*1429 U386
*1430 U387
*1431 U388
*1432 U389
*1433 U390
*1434 U391
*1435 U392
*1436 U394
*1437 U395
*1438 U396
*1439 U397
*1440 U398
*1441 U399
*1442 U400
*1443 U401
*1444 U402
*1445 U403
*1446 U404
*1447 U405
*1448 U406
*1449 U407
*1450 U408
*1451 U409
*1452 U410
*1453 U426
*1454 U427
*1455 U428
*1456 U429
*1457 U430
*1458 U431
*1459 U432
*1460 U433
*1461 U434
*1462 U435
*1463 U436
*1464 U437
*1465 U438
*1466 U439
*1467 U440
*1468 U441
*1469 U442
*1470 U443
*1471 U444
*1472 U445
*1473 U446
*1474 U447
*1475 U448
*1476 U449
*1477 U450
*1478 U451
*1479 U452
*1480 U453
*1481 U454
*1482 U455
*1483 U456
*1484 U457
*1485 U458
*1486 U459
*1487 U460
*1488 U461
*1489 U462
*1490 U463
*1491 U464
*1492 U465
*1493 U466
*1494 U467
*1495 U468
*1496 U469
*1497 U470
*1498 U471
*1499 U472
*1500 U473
*1501 U474
*1502 U475
*1503 U476
*1504 U477
*1505 U478
*1506 U479
*1507 U480
*1508 U481
*1509 U482
*1510 U483
*1511 U484
*1512 U485
*1513 U486
*1514 U487
*1515 U488
*1516 U489
*1517 U490
*1518 U491
*1519 U492
*1520 U493
*1521 U494
*1522 U495
*1523 U496
*1524 U497
*1525 U498
*1526 U499
*1527 U500
*1528 U501
*1529 U502
*1530 U503
*1531 U504
*1532 U505
*1533 U506
*1534 U507
*1535 U508
*1536 U509
*1537 U510
*1538 U513
*1539 U514
*1540 U515
*1541 U516
*1542 U517
*1543 U518
*1544 U519
*1545 U520
*1546 U521
*1547 U522
*1548 U523
*1549 U524
*1550 U525
*1551 U526
*1552 U527
*1553 U528
*1554 U529
*1555 U530
*1556 U531
*1557 U532
*1558 U533
*1559 U534
*1560 U536
*1561 U537
*1562 U538
*1563 U539
*1564 U540
*1565 U541
*1566 U542
*1567 U543
*1568 U547
*1569 U548
*1570 U549
*1571 U550
*1572 U551
*1573 U552
*1574 U553
*1575 U554
*1576 U555
*1577 U556
*1578 U596
*1579 U597
*1580 U598
*1581 U599
*1582 U600
*1583 U601
*1584 U602
*1585 U603
*1586 U604
*1587 U605
*1588 U606
*1589 U607
*1590 U608
*1591 U609
*1592 U610
*1593 U619
*1594 U620
*1595 U621
*1596 U622
*1597 U623
*1598 U624
*1599 U625
*1600 U626
*1601 U627
*1602 U628
*1603 U629
*1604 U630
*1605 U631
*1606 U632
*1607 U633
*1608 U634
*1609 U635
*1610 U636
*1611 U637
*1612 U638
*1613 U639
*1614 U640
*1615 U641
*1616 U642
*1617 U643
*1618 U644
*1619 U645
*1620 U646
*1621 U647
*1622 U649
*1623 U650
*1624 U651
*1625 U652
*1626 U653
*1627 U654
*1628 U655
*1629 U656
*1630 U657
*1631 U658
*1632 U659
*1633 U660
*1634 U661
*1635 U662
*1636 U663
*1637 U664
*1638 U665
*1639 U666
*1640 U667
*1641 U668
*1642 U669
*1643 U670
*1644 U671
*1645 U672
*1646 U673
*1647 U678
*1648 U679
*1649 U680
*1650 U681
*1651 U682
*1652 U683
*1653 U684
*1654 U685
*1655 U686
*1656 U687
*1657 U688
*1658 U689
*1659 U690
*1660 U691
*1661 U692
*1662 U693
*1663 U694
*1664 U695
*1665 U696
*1666 U697
*1667 U698
*1668 U699
*1669 U700
*1670 U701
*1671 U702
*1672 U703
*1673 U704
*1674 U705
*1675 U706
*1676 U707
*1677 U708
*1678 U709
*1679 U710
*1680 U711
*1681 U712
*1682 U713
*1683 U714
*1684 U715
*1685 U716
*1686 U717
*1687 U718
*1688 U719
*1689 U720
*1690 U721
*1691 U722
*1692 U723
*1693 U724
*1694 U725
*1695 U726
*1696 U727
*1697 U728
*1698 U729
*1699 U730
*1700 U731
*1701 U732
*1702 U733
*1703 U734
*1704 U735
*1705 U736
*1706 U737
*1707 U738
*1708 U739
*1709 U740
*1710 U741
*1711 U742
*1712 U743
*1713 U744
*1714 U745
*1715 U746
*1716 U747
*1717 U748
*1718 U749
*1719 U750
*1720 U751
*1721 U752
*1722 U753
*1723 U754
*1724 U755
*1725 U756
*1726 U757
*1727 U758
*1728 U759
*1729 U760
*1730 U761
*1731 U762
*1732 U763
*1733 U764
*1734 U765
*1735 U766
*1736 U767
*1737 U768
*1738 U769
*1739 U770
*1740 U771
*1741 U772
*1742 U773
*1743 U774
*1744 U775
*1745 U776
*1746 U777
*1747 U778
*1748 U779
*1749 U780
*1750 U781
*1751 U782
*1752 U783
*1753 U784
*1754 U785
*1755 U786
*1756 U787
*1757 U788
*1758 U789
*1759 U790
*1760 U791
*1761 U792
*1762 U793
*1763 U794
*1764 U795
*1765 U796
*1766 U797
*1767 U798
*1768 U799
*1769 U800
*1770 U801
*1771 U802
*1772 U803
*1773 U804
*1774 U805
*1775 U806
*1776 U807
*1777 U808
*1778 U809
*1779 U810
*1780 U811
*1781 U812
*1782 U813
*1783 U814
*1784 U815
*1785 U816
*1786 U817
*1787 U818
*1788 U819
*1789 U820
*1790 U822
*1791 U823
*1792 U824
*1793 U825
*1794 U826
*1795 U827
*1796 U828
*1797 U829
*1798 U830
*1799 U831
*1800 U832
*1801 U833
*1802 U834
*1803 U835
*1804 U836
*1805 U837
*1806 U838
*1807 U839
*1808 U840
*1809 U841
*1810 U842
*1811 U843
*1812 U844
*1813 U845
*1814 U846
*1815 U847
*1816 U848
*1817 U849
*1818 U850
*1819 U851
*1820 U852
*1821 U853
*1822 U854
*1823 U855
*1824 U856
*1825 U857
*1826 U858
*1827 U859
*1828 U860
*1829 U869
*1830 U870
*1831 U871
*1832 U872
*1833 U873
*1834 U874
*1835 U875
*1836 U876
*1837 U877
*1838 U878
*1839 U879
*1840 U880
*1841 U881
*1842 U882
*1843 U883
*1844 U887
*1845 U888
*1846 U919
*1847 U920
*1848 U921
*1849 U922
*1850 U923
*1851 U924
*1852 U925
*1853 U926
*1854 U933
*1855 U934
*1856 U935
*1857 U936
*1858 U937
*1859 U938
*1860 U939
*1861 U940
*1862 U941
*1863 U942
*1864 U943
*1865 U944
*1866 U945
*1867 U946
*1868 U947
*1869 U948
*1870 U949
*1871 U950
*1872 U951
*1873 U952
*1874 U953
*1875 U954
*1876 U955
*1877 U956
*1878 U957
*1879 U958
*1880 U959
*1881 U960
*1882 U961
*1883 U962
*1884 U963
*1885 U964
*1886 U965
*1887 U966
*1888 U967
*1889 U968
*1890 U969
*1891 U970
*1892 U971
*1893 U972
*1894 U973
*1895 U974
*1896 U978
*1897 U979
*1898 U980
*1899 U981
*1900 U982
*1901 U983
*1902 U984
*1903 U985
*1904 U986
*1905 U987
*1906 U988
*1907 U989
*1908 U990
*1909 U991
*1910 U992
*1911 U993
*1912 U994
*1913 U995
*1914 U996
*1915 U997
*1916 U998
*1917 U999
*1918 U1000
*1919 U1001
*1920 U1002
*1921 U1003
*1922 U1004